
Note: No compatibility mode selected!


Circuit: ** sch_path: /home/subhransu/gitrepo/gf180mcu_ocd_io-sdas/runs/run_2026-01-19_07-19-43/parameters/time_response/run_0/io_inv_1_time.sch

Doing analysis at TEMP = -40.000000 and TNOM = 27.000000

Using SPARSE 1.3 as Direct Linear Solver

Initial Transient Solution
--------------------------

Node                                   Voltage
----                                   -------
vout                                       1.8
vin                                          0
vss                                          0
vdd                                        1.8
v3#branch                                    0
v2#branch                         -1.79949e-12
v1#branch                          1.80001e-12

 Reference value :  6.25000e-09
 Reference value :  2.07500e-08
 Reference value :  3.55500e-08
 Reference value :  4.57500e-08
No. of Data Rows : 535
tr1090              =  1.505992e-10 targ=  1.179191e-08 trig=  1.164131e-08
tf9010              =  1.258119e-10 targ=  7.975094e-10 trig=  6.716976e-10
tdrise              =  1.145828e-08 targ=  1.173606e-08 trig=  2.777778e-10
tdfall              =  -1.100682e-08 targ=  7.153994e-10 trig=  1.172222e-08
Note: Simulation executed from .control section 
