
Note: No compatibility mode selected!


Circuit: ** sch_path: /home/subhransu/gitrepo/gf180mcu_ocd_io-sdas/runs/run_2026-01-13_11-04-48/parameters/transient_response/run_01/io_inv_1_tran.sch

Doing analysis at TEMP = -40.000000 and TNOM = 27.000000

Using SPARSE 1.3 as Direct Linear Solver

Initial Transient Solution
--------------------------

Node                                   Voltage
----                                   -------
vout                                       1.8
vin                                          0
vss                                          0
vdd                                        1.8
v3#branch                                    0
v2#branch                         -1.80016e-12
v1#branch                          1.80016e-12

 Reference value :  5.95000e-09
 Reference value :  2.10000e-08
 Reference value :  3.51500e-08
 Reference value :  4.36500e-08
No. of Data Rows : 535
Note: Simulation executed from .control section 
