
Note: No compatibility mode selected!


Circuit: ** sch_path: /home/subhransu/gitrepo/gf180mcu_ocd_io-sdas/runs/run_2026-01-19_07-19-43/parameters/time_response/run_7/io_inv_1_time.sch

Doing analysis at TEMP = 130.000000 and TNOM = 27.000000

Using SPARSE 1.3 as Direct Linear Solver

Initial Transient Solution
--------------------------

Node                                   Voltage
----                                   -------
vout                                       1.8
vin                                          0
vss                                          0
vdd                                        1.8
v3#branch                                    0
v2#branch                          -6.2117e-11
v1#branch                          6.21177e-11

 Reference value :  1.00000e-12
 Reference value :  1.80500e-08
 Reference value :  3.38500e-08
No. of Data Rows : 535
tr1090              =  1.723871e-10 targ=  1.169584e-08 trig=  1.152345e-08
tf9010              =  1.223176e-10 targ=  7.270488e-10 trig=  6.047311e-10
tdrise              =  1.136125e-08 targ=  1.163902e-08 trig=  2.777778e-10
tdfall              =  -1.105803e-08 targ=  6.641929e-10 trig=  1.172222e-08
Note: Simulation executed from .control section 
