
Note: No compatibility mode selected!


Circuit: ** sch_path: /home/subhransu/gitrepo/gf180mcu_ocd_io-sdas/runs/run_2026-01-13_11-03-24/parameters/dc_response/run_07/io_inv_1_dc.sch

Doing analysis at TEMP = 27.000000 and TNOM = 27.000000

Using SPARSE 1.3 as Direct Linear Solver
 Reference value :  0.00000e+00
 Reference value :  1.00000e-02
 Reference value :  4.00000e-02
 Reference value :  1.39000e+00
No. of Data Rows : 181
Note: Simulation executed from .control section 
