
Note: No compatibility mode selected!


Circuit: ** sch_path: /home/subhransu/gitrepo/gf180mcu_ocd_io-sdas/runs/run_2026-01-12_09-47-58/parameters/transient_response/run_0/io_inv_1_tran.sch

Doing analysis at TEMP = -40.000000 and TNOM = 27.000000

Using SPARSE 1.3 as Direct Linear Solver

Initial Transient Solution
--------------------------

Node                                   Voltage
----                                   -------
vout                              -1.42181e-21
vin                                          0
vss                                          0
vdd                                          0
v3#branch                                    0
v2#branch                         -3.77784e-34
v1#branch                          3.77842e-34

 Reference value :  2.42500e-08
 Reference value :  4.09500e-08
No. of Data Rows : 535
Note: Simulation executed from .control section 
