
Note: No compatibility mode selected!


Circuit: ** sch_path: /home/subhransu/gitrepo/gf180mcu_ocd_io-sdas/runs/run_2026-01-15_15-19-15/parameters/transient_response/run_0/io_inv_1_tran.sch

Doing analysis at TEMP = 27.000000 and TNOM = 27.000000

Using SPARSE 1.3 as Direct Linear Solver

Initial Transient Solution
--------------------------

Node                                   Voltage
----                                   -------
vout                                       1.8
vin                                          0
vss                                          0
vdd                                        1.8
v3#branch                                    0
v2#branch                         -1.94176e-12
v1#branch                          1.94222e-12

 Reference value :  2.10300e-08
No. of Data Rows : 535
tr                  =  1.476040e-10 targ=  1.170443e-08 trig=  1.155682e-08
tf                  =  1.179512e-10 targ=  7.215689e-10 trig=  6.036177e-10
Note: Simulation executed from .control section 
