
Note: No compatibility mode selected!


Circuit: ** sch_path: /home/subhransu/gitrepo/gf180mcu_ocd_io-sdas/runs/run_2026-01-12_05-30-29/parameters/transient_response/run_0/io_inv_1_tran.sch

