
Note: No compatibility mode selected!


Circuit: ** sch_path: /home/subhransu/gitrepo/gf180mcu_ocd_io-sdas/runs/run_2026-01-19_07-05-56/parameters/transient_response/run_7/io_inv_1_tran.sch

Doing analysis at TEMP = 130.000000 and TNOM = 27.000000

Using SPARSE 1.3 as Direct Linear Solver

Initial Transient Solution
--------------------------

Node                                   Voltage
----                                   -------
vout                                       1.8
vin                                          0
vss                                          0
vdd                                        1.8
v3#branch                                    0
v2#branch                          -6.2117e-11
v1#branch                          6.21177e-11

 Reference value :  2.15000e-09
 Reference value :  1.67500e-08
 Reference value :  3.74500e-08
No. of Data Rows : 535
Note: Simulation executed from .control section 
