
Note: No compatibility mode selected!


Circuit: ** sch_path: /home/subhransu/gitrepo/gf180mcu_ocd_io-sdas/runs/run_2026-01-13_11-04-48/parameters/dc_response/run_00/io_inv_1_dc.sch

Doing analysis at TEMP = -40.000000 and TNOM = 27.000000

Using SPARSE 1.3 as Direct Linear Solver
 Reference value :  1.30000e-01
 Reference value :  3.30000e-01
 Reference value :  4.30000e-01
 Reference value :  4.60000e-01
 Reference value :  6.50000e-01
 Reference value :  8.50000e-01
 Reference value :  1.28000e+00
 Reference value :  1.34000e+00
 Reference value :  1.48000e+00
 Reference value :  1.80000e+00
No. of Data Rows : 181
Note: Simulation executed from .control section 
