
Note: No compatibility mode selected!


Circuit: ** sch_path: /home/subhransu/gitrepo/gf180mcu_ocd_io-sdas/runs/run_2026-01-15_15-38-50/parameters/transient_response/run_0/io_inv_1_tran.sch

Doing analysis at TEMP = 27.000000 and TNOM = 27.000000

Using SPARSE 1.3 as Direct Linear Solver

Initial Transient Solution
--------------------------

Node                                   Voltage
----                                   -------
vout                                       1.8
vin                                          0
vss                                          0
vdd                                        1.8
v3#branch                                    0
v2#branch                         -1.94176e-12
v1#branch                          1.94222e-12


No. of Data Rows : 535
 meas tran tr trig v(vout) val=0.1*1.8 rise=1 failed!

 meas tran tr targ v(vout) val=0.9*1.8 rise=1 failed!

 meas tran tf trig v(vout) val=0.9*1.8 fall=1 failed!

 meas tran tf targ v(vout) val=0.1*1.8 fall=1 failed!

Note: Simulation executed from .control section 
