
Note: No compatibility mode selected!


Circuit: ** sch_path: /home/subhransu/gitrepo/gf180mcu_ocd_io-sdas/runs/run_2026-01-16_09-40-53/parameters/time_response/run_0/io_inv_1_time.sch

Doing analysis at TEMP = -40.000000 and TNOM = 27.000000

Using SPARSE 1.3 as Direct Linear Solver

Initial Transient Solution
--------------------------

Node                                   Voltage
----                                   -------
vout                                       1.8
vin                                          0
vss                                          0
vdd                                        1.8
v3#branch                                    0
v2#branch                         -1.80016e-12
v1#branch                          1.80016e-12

 Reference value :  1.20000e-08
 Reference value :  2.75500e-08
No. of Data Rows : 535
tr1090              =  1.453623e-10 targ=  1.171116e-08 trig=  1.156580e-08
tf9010              =  1.139726e-10 targ=  7.195742e-10 trig=  6.056016e-10
tdrise              =  1.138435e-08 targ=  1.166213e-08 trig=  2.777778e-10
tdfall              =  -1.106207e-08 targ=  6.601547e-10 trig=  1.172222e-08
Note: Simulation executed from .control section 
