
Note: No compatibility mode selected!


Circuit: ** sch_path: /home/subhransu/gitrepo/gf180mcu_ocd_io-sdas/runs/run_2026-01-13_11-04-48/parameters/dc_response/run_11/io_inv_1_dc.sch

Doing analysis at TEMP = 130.000000 and TNOM = 27.000000

Using SPARSE 1.3 as Direct Linear Solver
 Reference value :  1.30000e-01
 Reference value :  2.20000e-01
 Reference value :  3.50000e-01
 Reference value :  1.60000e+00
No. of Data Rows : 181
Note: Simulation executed from .control section 
