
Note: No compatibility mode selected!


Circuit: ** sch_path: /home/subhransu/gitrepo/gf180mcu_ocd_io-sdas/runs/run_2026-01-12_05-56-52/parameters/transient_response/run_1/io_inv_1_tran.sch

