
Note: No compatibility mode selected!


Circuit: ** sch_path: /home/subhransu/gitrepo/gf180mcu_ocd_io-sdas/runs/run_2026-01-12_07-12-46/parameters/transient_response/run_7/io_inv_1_tran.sch

