
Note: No compatibility mode selected!


Circuit: ** sch_path: /home/subhransu/gitrepo/gf180mcu_ocd_io-sdas/runs/run_2026-01-13_05-54-08/parameters/dc_response/run_2/io_inv_1_dc.sch

