
Note: No compatibility mode selected!


Circuit: ** sch_path: /home/subhransu/gitrepo/gf180mcu_ocd_io-sdas/runs/run_2026-01-14_07-26-26/parameters/transient_response/run_0/io_inv_1_tran.sch

Doing analysis at TEMP = 27.000000 and TNOM = 27.000000

Using SPARSE 1.3 as Direct Linear Solver

Initial Transient Solution
--------------------------

Node                                   Voltage
----                                   -------
vout                               7.35275e-09
vin                                        1.8
vss                                          0
vdd                                        1.8
v3#branch                                    0
v2#branch                         -1.80744e-12
v1#branch                          1.80751e-12

 Reference value :  0.00000e+00
 Reference value :  8.00000e-12
 Reference value :  4.74280e-08
No. of Data Rows : 508
Note: Simulation executed from .control section 
