
Note: No compatibility mode selected!


Circuit: ** sch_path: /home/subhransu/gitrepo/gf180mcu_ocd_io-sdas/runs/run_2026-01-13_05-36-42/parameters/dc_response/run_0/io_inv_1_dc.sch

Doing analysis at TEMP = -40.000000 and TNOM = 27.000000

Using SPARSE 1.3 as Direct Linear Solver
 Reference value :  2.00000e-02
 Reference value :  5.00000e-02
 Reference value :  1.02000e+00
No. of Data Rows : 181
Note: Simulation executed from .control section 
