
Note: No compatibility mode selected!


Circuit: ** sch_path: /home/subhransu/gitrepo/gf180mcu_ocd_io-sdas/runs/run_2026-01-12_10-41-42/parameters/dc_response/run_1/io_inv_1_dc.sch

Doing analysis at TEMP = 27.000000 and TNOM = 27.000000

Using SPARSE 1.3 as Direct Linear Solver
 Reference value :  5.30000e-01
 Reference value :  1.41000e+00
No. of Data Rows : 181
Note: Simulation executed from .control section 
