
Note: No compatibility mode selected!


Circuit: ** sch_path: /home/subhransu/gitrepo/gf180mcu_ocd_io-sdas/runs/run_2026-01-19_06-48-46/parameters/time_response/run_6/io_inv_1_time.sch

Doing analysis at TEMP = 130.000000 and TNOM = 27.000000

Using SPARSE 1.3 as Direct Linear Solver

Initial Transient Solution
--------------------------

Node                                   Voltage
----                                   -------
vout                                       1.8
vin                                          0
vss                                          0
vdd                                        1.8
v3#branch                                    0
v2#branch                         -9.17834e-12
v1#branch                          9.17874e-12

 Reference value :  2.00100e-08
 Reference value :  3.47500e-08
 Reference value :  4.56500e-08
No. of Data Rows : 535
tr1090              =  1.854692e-10 targ=  1.175810e-08 trig=  1.157263e-08
tf9010              =  1.418357e-10 targ=  8.021721e-10 trig=  6.603364e-10
tdrise              =  1.140955e-08 targ=  1.168732e-08 trig=  2.777778e-10
tdfall              =  -1.101011e-08 targ=  7.121110e-10 trig=  1.172222e-08
Note: Simulation executed from .control section 
