
Note: No compatibility mode selected!


Circuit: ** sch_path: /home/subhransu/gitrepo/gf180mcu_ocd_io-sdas/runs/run_2026-01-13_11-03-24/parameters/dc_response/run_08/io_inv_1_dc.sch

Doing analysis at TEMP = 27.000000 and TNOM = 27.000000

Using SPARSE 1.3 as Direct Linear Solver
 Reference value :  2.00000e-02
 Reference value :  2.70000e-01
 Reference value :  5.50000e-01
 Reference value :  8.00000e-01
 Reference value :  1.02000e+00
 Reference value :  1.46000e+00
No. of Data Rows : 181
Note: Simulation executed from .control section 
