
Note: No compatibility mode selected!


Circuit: ** sch_path: /home/subhransu/gitrepo/gf180mcu_ocd_io-sdas/runs/run_2026-01-19_07-19-43/parameters/time_response/run_3/io_inv_1_time.sch

Doing analysis at TEMP = 27.000000 and TNOM = 27.000000

Using SPARSE 1.3 as Direct Linear Solver

Initial Transient Solution
--------------------------

Node                                   Voltage
----                                   -------
vout                                       1.8
vin                                          0
vss                                          0
vdd                                        1.8
v3#branch                                    0
v2#branch                         -1.80898e-12
v1#branch                            1.809e-12

 Reference value :  0.00000e+00
 Reference value :  1.60000e-11
 Reference value :  4.56500e-08
No. of Data Rows : 535
tr1090              =  1.761264e-10 targ=  1.177981e-08 trig=  1.160368e-08
tf9010              =  1.320304e-10 targ=  7.983758e-10 trig=  6.663454e-10
tdrise              =  1.143591e-08 targ=  1.171369e-08 trig=  2.777778e-10
tdfall              =  -1.100880e-08 targ=  7.134183e-10 trig=  1.172222e-08
Note: Simulation executed from .control section 
