
Note: No compatibility mode selected!


Circuit: ** sch_path: /home/subhransu/gitrepo/gf180mcu_ocd_io-sdas/runs/run_2026-01-12_06-10-42/parameters/dc_response/run_4/io_inv_1_dc.sch

