
Note: No compatibility mode selected!


Circuit: ** sch_path: /home/subhransu/gitrepo/gf180mcu_ocd_io-sdas/runs/run_2026-01-19_06-48-46/parameters/time_response/run_4/io_inv_1_time.sch

Doing analysis at TEMP = 27.000000 and TNOM = 27.000000

Using SPARSE 1.3 as Direct Linear Solver

Initial Transient Solution
--------------------------

Node                                   Voltage
----                                   -------
vout                                       1.8
vin                                          0
vss                                          0
vdd                                        1.8
v3#branch                                    0
v2#branch                         -1.94176e-12
v1#branch                          1.94222e-12

 Reference value :  1.22500e-08
 Reference value :  3.10000e-08
 Reference value :  4.77500e-08
No. of Data Rows : 535
tr1090              =  1.476040e-10 targ=  1.170443e-08 trig=  1.155682e-08
tf9010              =  1.179512e-10 targ=  7.215689e-10 trig=  6.036177e-10
tdrise              =  1.137710e-08 targ=  1.165488e-08 trig=  2.777778e-10
tdfall              =  -1.106226e-08 targ=  6.599642e-10 trig=  1.172222e-08
Note: Simulation executed from .control section 
