
Note: No compatibility mode selected!


Circuit: ** sch_path: /home/subhransu/gitrepo/gf180mcu_ocd_io-sdas/runs/run_2026-01-13_07-08-22/parameters/dc_response/run_8/io_inv_1_dc.sch

