
Note: No compatibility mode selected!


Circuit: ** sch_path: /home/subhransu/gitrepo/gf180mcu_ocd_io-sdas/runs/run_2026-01-13_06-45-13/parameters/dc_response/run_0/io_inv_1_dc.sch

